grid_simulations/EVs_20kW/Result_no_control/output_voltage_peak.csv
# Result_no_control/output_voltage_peak.csv run at 2000-01-01 18:03:00 EST on 963 nodes
node_name,voltA_mag,voltA_angle,voltB_mag,voltB_angle,voltC_mag,voltC_angle
SourceBus,6668.395609,0.000000,6668.395609,4.188790,6668.395609,2.094395
Bus1,233.810429,-0.645694,241.387507,3.553285,239.199750,1.445645
Bus2,232.205850,-0.643723,240.063193,3.552489,238.010068,1.446112
Bus3,232.037685,-0.643515,239.924366,3.552405,237.885350,1.446162
Bus4,231.880150,-0.643320,239.794308,3.552326,237.768509,1.446208
Bus5,231.742809,-0.643149,239.680918,3.552257,237.666641,1.446248
Bus6,231.526457,-0.642881,239.502286,3.552149,237.506159,1.446312
Bus7,216.835975,-0.623305,227.345244,3.544364,226.580449,1.450852
Bus8,216.180093,-0.622366,226.801089,3.543995,226.091218,1.451066
Bus9,215.634336,-0.621580,226.348203,3.543688,225.684030,1.451245
Bus10,215.155501,-0.620887,225.950776,3.543416,225.326695,1.451402
Bus11,214.798267,-0.620368,225.654232,3.543213,225.060060,1.451519
Bus12,214.462966,-0.619879,225.375858,3.543022,224.809758,1.451630
Bus13,214.256811,-0.619578,225.204687,3.542905,224.655847,1.451698
Bus14,213.743664,-0.618825,224.778564,3.542611,224.272681,1.451868
Bus15,209.591303,-0.612591,221.327330,3.540190,221.168956,1.453268
Bus16,209.591303,-0.612591,221.327330,3.540190,221.168956,1.453268
Bus17,204.567274,-0.604693,217.143922,3.537150,217.405760,1.455020
Bus18,209.591303,-0.612591,221.327330,3.540190,221.168956,1.453268
Bus19,204.222071,-0.604135,216.856153,3.536936,217.146854,1.455143
Bus20,209.591303,-0.612591,221.327330,3.540190,221.168956,1.453268
Bus21,203.834526,-0.603506,216.533034,3.536696,216.856137,1.455281
Bus22,209.591303,-0.612591,221.327330,3.540190,221.168956,1.453268
Bus23,203.203696,-0.602478,216.006958,3.536303,216.382800,1.455507
Bus24,209.591303,-0.612591,221.327330,3.540190,221.168956,1.453268
Bus25,202.056620,-0.600590,215.049985,3.535583,215.521713,1.455920
Bus26,209.591303,-0.612591,221.327330,3.540190,221.168956,1.453268
Bus27,200.643340,-0.598814,215.055203,3.535490,215.536725,1.455986
Bus28,189.382729,-0.577227,202.867650,3.529513,204.201389,1.458865
Bus29,209.591303,-0.612591,221.327330,3.540190,221.168956,1.453268
Bus30,200.443686,-0.598561,215.055941,3.535477,215.538846,1.455996
Bus31,200.458678,-0.598580,215.055886,3.535478,215.538687,1.455995
Bus32,186.027661,-0.570473,199.625876,3.527772,201.188059,1.459705
Bus33,209.591303,-0.612591,221.327330,3.540190,221.168956,1.453268
Bus34,199.986513,-0.597980,215.057630,3.535446,215.543705,1.456017
Bus35,200.452424,-0.598572,215.055909,3.535477,215.538753,1.455995
Bus36,186.043341,-0.570402,198.211907,3.529087,201.192922,1.459606
Bus37,175.469279,-0.550687,191.192481,3.521005,191.928952,1.465476
Bus38,209.591303,-0.612591,221.327330,3.540190,221.168956,1.453268
Bus39,200.443433,-0.598561,215.055942,3.535477,215.538849,1.455996
Bus40,186.043897,-0.570399,198.161764,3.529134,201.193095,1.459602
Bus41,186.045776,-0.570391,197.992373,3.529293,201.193677,1.459591
Bus42,168.187125,-0.535500,185.345806,3.515948,185.507821,1.469819
Bus43,175.469279,-0.550687,191.192481,3.521005,191.928952,1.465476
Bus44,209.591303,-0.612591,221.327330,3.540190,221.168956,1.453268
Bus45,200.431902,-0.598546,215.055985,3.535476,215.538971,1.455996
Bus46,186.044148,-0.570398,198.139163,3.529155,201.193172,1.459601
Bus47,186.051635,-0.570364,197.464166,3.529791,201.195495,1.459554
Bus48,162.712063,-0.523125,180.931048,3.511910,180.658115,1.473305
Bus49,175.469279,-0.550687,191.192481,3.521005,191.928952,1.465476
Bus50,209.591303,-0.612591,221.327330,3.540190,221.168956,1.453268
Bus51,200.403820,-0.598510,215.056088,3.535474,215.539270,1.455998
Bus52,186.044413,-0.570397,198.115211,3.529178,201.193255,1.459599
Bus53,161.924804,-0.521272,180.294779,3.511312,179.959071,1.473823
Bus54,162.712063,-0.523125,180.931048,3.511910,180.658115,1.473305
Bus55,175.469279,-0.550687,191.192481,3.521005,191.928952,1.465476
Bus56,209.591303,-0.612591,221.327330,3.540190,221.168956,1.453268
Bus57,200.379777,-0.598480,215.056177,3.535473,215.539525,1.455999
Bus58,186.044666,-0.570396,198.092399,3.529199,201.193333,1.459598
Bus59,158.365886,-0.512647,177.413474,3.508547,176.793209,1.476222
Bus60,162.712063,-0.523125,180.931048,3.511910,180.658115,1.473305
Bus61,175.469279,-0.550687,191.192481,3.521005,191.928952,1.465476
Bus62,209.591303,-0.612591,221.327330,3.540190,221.168956,1.453268
Bus63,200.264525,-0.598333,215.056603,3.535465,215.540750,1.456004
Bus64,186.044818,-0.570395,198.078736,3.529212,201.193380,1.459597
Bus65,157.745881,-0.511068,176.814758,3.508231,176.114709,1.476538
Bus66,156.181942,-0.507578,177.422261,3.508367,176.817890,1.476347
Bus67,162.712063,-0.523125,180.931048,3.511910,180.658115,1.473305
Bus68,175.469279,-0.550687,191.192481,3.521005,191.928952,1.465476
Bus69,209.591303,-0.612591,221.327330,3.540190,221.168956,1.453268
Bus70,199.857184,-0.597815,215.058108,3.535438,215.545079,1.456023
Bus71,186.045115,-0.570394,198.051931,3.529237,201.193473,1.459595
Bus72,150.452074,-0.491433,169.742538,3.504339,168.099890,1.480468
Bus73,155.649721,-0.506320,177.424406,3.508323,176.823912,1.476377
Bus74,155.647907,-0.506316,177.424413,3.508323,176.823932,1.476377
Bus75,162.712063,-0.523125,180.931048,3.511910,180.658115,1.473305
Bus76,175.469279,-0.550687,191.192481,3.521005,191.928952,1.465476
Bus77,209.591303,-0.612591,221.327330,3.540190,221.168956,1.453268
Bus78,186.046622,-0.570387,197.916087,3.529365,201.193940,1.459585
Bus79,147.924179,-0.484135,167.277982,3.502905,165.306779,1.481928
Bus80,162.712063,-0.523125,180.931048,3.511910,180.658115,1.473305
Bus81,175.469279,-0.550687,191.192481,3.521005,191.928952,1.465476
Bus82,209.591303,-0.612591,221.327330,3.540190,221.168956,1.453268
Bus83,186.052300,-0.570361,197.404223,3.529847,201.195702,1.459549
Bus84,147.373578,-0.482509,166.740182,3.502586,164.697279,1.482253
Bus85,162.712063,-0.523125,180.931048,3.511910,180.658115,1.473305
Bus86,175.469279,-0.550687,191.192481,3.521005,191.928952,1.465476
Bus87,209.591303,-0.612591,221.327330,3.540190,221.168956,1.453268
Bus88,146.258258,-0.479174,165.649660,3.501934,163.461362,1.482920
Bus89,162.712063,-0.523125,180.931048,3.511910,180.658115,1.473305
Bus90,175.469279,-0.550687,191.192481,3.521005,191.928952,1.465476
Bus91,209.591303,-0.612591,221.327330,3.540190,221.168956,1.453268
Bus92,145.207971,-0.475982,164.621312,3.501311,162.295902,1.483558
Bus93,175.469279,-0.550687,191.192481,3.521005,191.928952,1.465476
Bus94,209.591303,-0.612591,221.327330,3.540190,221.168956,1.453268
Bus95,144.598192,-0.474105,164.023628,3.500945,161.618524,1.483933
Bus96,175.469279,-0.550687,191.192481,3.521005,191.928952,1.465476
Bus97,209.591303,-0.612591,221.327330,3.540190,221.168956,1.453268
Bus98,144.195760,-0.472857,163.628914,3.500702,161.171179,1.484182
Bus99,175.469279,-0.550687,191.192481,3.521005,191.928952,1.465476
Bus100,209.591303,-0.612591,221.327330,3.540190,221.168956,1.453268
Bus101,143.640485,-0.471123,163.083940,3.500364,160.553536,1.484529
Bus102,175.469279,-0.550687,191.192481,3.521005,191.928952,1.465476
Bus103,209.591303,-0.612591,221.327330,3.540190,221.168956,1.453268
Bus104,143.640904,-0.471127,163.070403,3.500351,160.542939,1.484482
Bus105,143.268445,-0.470010,162.795924,3.500028,160.199768,1.484860
Bus106,175.469279,-0.550687,191.192481,3.521005,191.928952,1.465476
Bus107,143.641411,-0.471133,163.054025,3.500334,160.530118,1.484426
Bus108,143.057559,-0.469376,162.632612,3.499836,159.999171,1.485049
Bus109,175.469279,-0.550687,191.192481,3.521005,191.928952,1.465476
Bus110,143.641998,-0.471140,163.035042,3.500315,160.515259,1.484360
Bus111,134.785306,-0.442797,156.193745,3.491959,152.088945,1.492883
Bus112,175.469279,-0.550687,191.192481,3.521005,191.928952,1.465476
Bus113,143.642893,-0.471149,163.006098,3.500285,160.492604,1.484260
Bus114,133.962209,-0.439954,155.549269,3.491134,151.297057,1.493713
Bus115,175.469279,-0.550687,191.192481,3.521005,191.928952,1.465476
Bus116,143.644045,-0.471162,162.968887,3.500247,160.463480,1.484131
Bus117,133.953861,-0.440011,155.517797,3.491098,151.253455,1.493579
Bus118,131.410922,-0.432742,153.914500,3.486735,149.280308,1.494916
Bus119,175.469279,-0.550687,191.192481,3.521005,191.928952,1.465476
Bus120,143.644871,-0.471171,162.942174,3.500220,160.442573,1.484039
Bus121,133.953861,-0.440011,155.517797,3.491098,151.253455,1.493579
Bus122,133.949796,-0.440039,155.502474,3.491080,151.232226,1.493514
Bus123,126.828258,-0.419004,150.974160,3.478563,145.643931,1.497170
Bus124,175.469279,-0.550687,191.192481,3.521005,191.928952,1.465476
Bus125,143.646039,-0.471184,162.904428,3.500182,160.413035,1.483908
Bus126,133.953861,-0.440011,155.517797,3.491098,151.253455,1.493579
Bus127,133.930702,-0.440169,155.430490,3.490998,151.132510,1.493207
Bus128,124.775653,-0.412498,149.655270,3.474784,144.008904,1.498220
Bus129,175.469279,-0.550687,191.192481,3.521005,191.928952,1.465476
Bus130,143.647302,-0.471198,162.863590,3.500140,160.381079,1.483767
Bus131,133.953861,-0.440011,155.517797,3.491098,151.253455,1.493579
Bus132,133.346157,-0.438047,155.432828,3.490940,151.139694,1.493246
Bus133,134.062825,-0.440714,155.203112,3.491258,150.789380,1.491986
Bus134,124.165988,-0.410520,149.263281,3.473647,143.522470,1.498537
Bus135,175.469279,-0.550687,191.192481,3.521005,191.928952,1.465476
Bus136,143.648494,-0.471211,162.825076,3.500101,160.350946,1.483634
Bus137,133.953861,-0.440011,155.517797,3.491098,151.253455,1.493579
Bus138,133.295845,-0.437863,155.433029,3.490935,151.140312,1.493249
Bus139,134.161142,-0.441118,155.033961,3.491451,150.534256,1.491074
Bus140,123.478386,-0.408265,148.821037,3.472356,142.973399,1.498898
Bus141,175.469279,-0.550687,191.192481,3.521005,191.928952,1.465476
Bus142,143.650453,-0.471233,162.761755,3.500036,160.301408,1.483414
Bus143,133.953861,-0.440011,155.517797,3.491098,151.253455,1.493579
Bus144,133.246483,-0.437683,155.433227,3.490930,151.140919,1.493253
Bus145,134.226996,-0.441389,154.920688,3.491582,150.363476,1.490461
Bus146,122.832289,-0.406121,148.405342,3.471134,142.457025,1.499240
Bus147,175.469279,-0.550687,191.192481,3.521005,191.928952,1.465476
Bus148,143.659770,-0.471336,162.460683,3.499728,160.065970,1.482369
Bus149,133.953861,-0.440011,155.517797,3.491098,151.253455,1.493579
Bus150,133.206629,-0.437537,155.433386,3.490926,151.141409,1.493255
Bus151,134.236552,-0.442006,154.972921,3.492001,150.169243,1.490307
Bus152,134.245075,-0.441285,153.323544,3.492220,150.370080,1.490316
Bus153,122.079138,-0.403590,147.920587,3.469701,141.854536,1.499642
Bus154,175.469279,-0.550687,191.192481,3.521005,191.928952,1.465476
Bus155,143.661800,-0.471359,162.395098,3.499661,160.014704,1.482141
Bus156,133.953861,-0.440011,155.517797,3.491098,151.253455,1.493579
Bus157,133.146816,-0.437319,155.433625,3.490921,151.142145,1.493259
Bus158,134.262145,-0.443642,155.111579,3.493112,149.654142,1.489899
Bus159,134.246175,-0.441279,153.226334,3.492259,150.370482,1.490307
Bus160,121.862569,-0.402856,147.781157,3.469286,141.681178,1.499758
Bus161,175.469279,-0.550687,191.192481,3.521005,191.928952,1.465476
Bus162,143.680531,-0.471256,160.730375,3.500582,160.021347,1.481998
Bus163,143.631834,-0.471665,162.259528,3.499574,159.805369,1.481570
Bus164,133.953861,-0.440011,155.517797,3.491098,151.253455,1.493579
Bus165,133.074713,-0.437054,155.433914,3.490913,151.143032,1.493264
Bus166,134.271119,-0.444210,155.159787,3.493497,149.475225,1.489756
Bus167,134.247181,-0.441273,153.137527,3.492295,150.370849,1.490299
Bus168,120.633466,-0.398637,146.989522,3.466918,140.696336,1.500424
Bus169,175.469279,-0.550687,191.192481,3.521005,191.928952,1.465476
Bus170,143.684069,-0.471237,160.415896,3.500759,160.022603,1.481971
Bus171,143.592072,-0.472073,162.079546,3.499458,159.527534,1.480810
Bus172,133.953861,-0.440011,155.517797,3.491098,151.253455,1.493579
Bus173,133.020247,-0.436855,155.434132,3.490908,151.143702,1.493268
Bus174,134.271119,-0.444210,155.159787,3.493497,149.475225,1.489756
Bus175,134.272835,-0.444368,155.173779,3.493601,148.010685,1.491839
Bus176,134.247598,-0.441271,153.100635,3.492310,150.371002,1.490296
Bus177,119.940225,-0.396215,146.542769,3.465569,140.140119,1.500804
Bus178,143.691370,-0.471197,159.767079,3.501124,160.025193,1.481915
Bus179,143.581864,-0.471956,162.031983,3.499312,159.543245,1.480726
Bus180,143.593198,-0.472156,162.087559,3.499513,158.708176,1.481923
Bus181,133.953861,-0.440011,155.517797,3.491098,151.253455,1.493579
Bus182,132.957227,-0.436623,155.434384,3.490902,151.144477,1.493272
Bus183,134.271119,-0.444210,155.159787,3.493497,149.475225,1.489756
Bus184,134.273020,-0.444385,155.175290,3.493612,147.852552,1.492066
Bus185,134.248499,-0.441266,153.021117,3.492342,150.371330,1.490288
Bus186,119.426073,-0.394399,146.211305,3.464562,139.727237,1.501089
Bus187,143.541712,-0.471498,161.844841,3.498735,159.605084,1.480398
Bus188,143.597871,-0.472498,162.120726,3.499739,155.319175,1.486656
Bus189,133.953861,-0.440011,155.517797,3.491098,151.253455,1.493579
Bus190,132.897979,-0.436406,155.434622,3.490896,151.145207,1.493276
Bus191,134.271119,-0.444210,155.159787,3.493497,149.475225,1.489756
Bus192,134.271119,-0.444210,155.159787,3.493497,149.475225,1.489756
Bus193,134.273199,-0.444402,155.176752,3.493623,147.699602,1.492287
Bus194,134.250792,-0.441253,152.818583,3.492424,150.372168,1.490270
Bus195,118.964165,-0.392754,145.913431,3.463653,139.356047,1.501346
Bus196,143.470097,-0.470678,161.510843,3.497703,159.715536,1.479812
Bus197,143.598299,-0.472530,162.123775,3.499759,155.008017,1.487102
Bus198,143.598152,-0.472519,162.122711,3.499752,155.116410,1.486945
Bus199,133.953861,-0.440011,155.517797,3.491098,151.253455,1.493579
Bus200,132.834238,-0.436171,155.434877,3.490890,151.145991,1.493280
...
Bus467,82.012029,0.016300,119.869072,3.285947,140.085670,1.531537
Bus468,83.200841,-0.014510,121.237333,3.298009,139.426405,1.530755
Bus469,83.200841,-0.014510,121.237333,3.298009,139.426405,1.530755
Bus470,83.861883,-0.034283,122.487717,3.308551,138.842189,1.530090
Bus471,105.448293,-0.340378,134.276651,3.440015,119.781242,1.508213
Bus472,101.455249,-0.307768,127.946876,3.425011,119.351591,1.494484
Bus473,104.428169,-0.331960,132.649383,3.436093,122.639442,1.500434
Bus474,107.195859,-0.347273,136.642957,3.441914,126.771537,1.504931
Bus475,81.596265,0.027811,119.372108,3.281458,140.327278,1.531822
Bus476,82.012029,0.016300,119.869072,3.285947,140.085670,1.531537
Bus477,83.829065,-0.033780,122.488003,3.308545,138.842820,1.530093
Bus478,105.448342,-0.340398,134.277909,3.440028,119.630934,1.508442
Bus479,101.416548,-0.307440,127.885124,3.424860,119.308369,1.494404
Bus480,104.428169,-0.331960,132.649383,3.436093,122.639442,1.500434
Bus481,107.195859,-0.347273,136.642957,3.441914,126.771537,1.504931
Bus482,81.449383,0.039968,118.101444,3.276006,140.391635,1.530229
Bus483,81.596265,0.027811,119.372108,3.281458,140.327278,1.531822
Bus484,79.524954,0.067243,119.393656,3.281043,140.372197,1.532036
Bus485,83.806846,-0.033439,122.488197,3.308541,138.843248,1.530095
Bus486,105.448365,-0.340408,134.278510,3.440035,119.559118,1.508551
Bus487,101.375679,-0.307094,127.819897,3.424700,119.262714,1.494319
Bus488,104.428169,-0.331960,132.649383,3.436093,122.639442,1.500434
Bus489,107.195859,-0.347273,136.642957,3.441914,126.771537,1.504931
Bus490,81.259943,0.057464,116.286565,3.267986,140.484494,1.527948
Bus491,81.449383,0.039968,118.101444,3.276006,140.391635,1.530229
Bus492,79.468961,0.068373,119.394258,3.281031,140.373450,1.532042
Bus493,79.126773,0.075359,119.397959,3.280960,140.381165,1.532078
Bus494,83.773115,-0.032921,122.488491,3.308535,138.843897,1.530098
Bus495,105.448380,-0.340414,134.278891,3.440039,119.513626,1.508621
Bus496,101.286364,-0.306335,127.677292,3.424350,119.162892,1.494133
Bus497,104.428169,-0.331960,132.649383,3.436093,122.639442,1.500434
Bus498,107.195859,-0.347273,136.642957,3.441914,126.771537,1.504931
Bus499,81.156602,0.068179,115.182774,3.262967,140.541522,1.526558
Bus500,81.259943,0.057464,116.286565,3.267986,140.484494,1.527948
Bus501,79.445325,0.068851,119.394512,3.281026,140.373980,1.532044
Bus502,78.874739,0.080595,119.400713,3.280907,140.386903,1.532106
Bus503,83.721968,-0.032134,122.488937,3.308526,138.844883,1.530103
Bus504,105.448390,-0.340419,134.279149,3.440041,119.482867,1.508668
Bus505,99.276625,-0.288771,124.447270,3.416193,116.900029,1.489824
Bus506,104.428169,-0.331960,132.649383,3.436093,122.639442,1.500434
Bus507,107.195859,-0.347273,136.642957,3.441914,126.771537,1.504931
Bus508,81.139747,0.070027,114.992986,3.262093,140.551370,1.526319
Bus509,81.156602,0.068179,115.182774,3.262967,140.541522,1.526558
Bus510,79.431445,0.069132,119.394661,3.281023,140.374292,1.532046
Bus511,83.685712,-0.031576,122.489254,3.308520,138.845582,1.530106
Bus512,105.448404,-0.340425,134.279508,3.440045,119.439964,1.508733
Bus513,99.287116,-0.288706,123.583497,3.415737,116.904205,1.489725
Bus514,98.936034,-0.286225,124.040860,3.415003,116.538246,1.489474
Bus515,104.428169,-0.331960,132.649383,3.436093,122.639442,1.500434
Bus516,81.386279,0.069475,114.380248,3.261579,140.385054,1.524713
Bus517,81.139747,0.070027,114.992986,3.262093,140.551370,1.526319
Bus518,80.172177,0.089784,115.004054,3.261883,140.573366,1.526424
Bus519,79.418677,0.069390,119.394799,3.281021,140.374578,1.532047
Bus520,83.660957,-0.031194,122.489471,3.308516,138.846060,1.530108
Bus521,105.448415,-0.340429,134.279782,3.440048,119.407220,1.508783
Bus522,99.296369,-0.288648,122.821788,3.415330,116.907888,1.489638
Bus523,98.752563,-0.284844,123.821687,3.414357,116.343081,1.489284
Bus524,104.428169,-0.331960,132.649383,3.436093,122.639442,1.500434
Bus525,81.567771,0.069071,113.929219,3.261196,140.262857,1.523529
Bus526,81.386279,0.069475,114.380248,3.261579,140.385054,1.524713
Bus527,79.615413,0.101682,115.010597,3.261759,140.586365,1.526487
Bus528,79.407306,0.069621,119.394922,3.281018,140.374834,1.532048
Bus529,83.641404,-0.030891,122.489642,3.308512,138.846437,1.530110
Bus530,105.448491,-0.340461,134.281738,3.440069,119.173560,1.509141
Bus531,98.725179,-0.284638,123.788959,3.414261,116.313935,1.489255
Bus532,104.428169,-0.331960,132.649383,3.436093,122.639442,1.500434
Bus533,81.814894,0.068523,113.315170,3.260671,140.096803,1.521913
Bus534,81.567771,0.069071,113.929219,3.261196,140.262857,1.523529
Bus535,79.182366,0.111227,115.015782,3.261661,140.596665,1.526536
Bus536,79.395515,0.069860,119.395049,3.281016,140.375098,1.532049
Bus537,83.578764,-0.029922,122.490190,3.308501,138.847647,1.530116
Bus538,105.448636,-0.340518,134.285211,3.440105,118.757729,1.509777
Bus539,105.448854,-0.340624,134.291679,3.440173,117.989135,1.510994
Bus540,98.704279,-0.284480,123.763977,3.414187,116.291686,1.489234
Bus541,104.428169,-0.331960,132.649383,3.436093,122.639442,1.500434
Bus542,81.989788,0.068138,112.880653,3.260296,139.979515,1.520768
Bus543,81.814894,0.068523,113.315170,3.260671,140.096803,1.521913
Bus544,79.005550,0.115201,115.017925,3.261621,140.600921,1.526557
Bus545,79.359946,0.070583,119.395432,3.281008,140.375898,1.532053
Bus546,83.075004,-0.022026,122.494627,3.308412,138.857437,1.530164
Bus547,105.448796,-0.340581,134.289047,3.440146,118.298614,1.510484
Bus548,98.684733,-0.284332,123.740614,3.414118,116.270878,1.489213
Bus549,104.428169,-0.331960,132.649383,3.436093,122.639442,1.500434
Bus550,82.478948,0.067068,111.665592,3.259231,139.652493,1.517554
Bus551,81.989788,0.068138,112.880653,3.260296,139.979515,1.520768
Bus552,78.976355,0.115862,115.018281,3.261614,140.601627,1.526560
Bus553,78.662962,0.123035,115.022122,3.261541,140.609255,1.526597
Bus554,79.324144,0.071311,119.395819,3.281001,140.376704,1.532057
Bus555,83.050054,-0.021631,122.494848,3.308407,138.857924,1.530166
Bus556,105.449232,-0.340752,134.299445,3.440255,117.054453,1.512428
Bus557,98.663893,-0.284175,123.715700,3.414044,116.248689,1.489192
Bus558,104.428169,-0.331960,132.649383,3.436093,122.639442,1.500434
Bus559,82.833207,0.066302,110.785849,3.258445,139.416600,1.515217
Bus560,82.478948,0.067068,111.665592,3.259231,139.652493,1.517554
Bus561,78.965621,0.116105,115.018411,3.261611,140.601887,1.526562
Bus562,78.407023,0.129006,115.025297,3.261481,140.615560,1.526627
Bus563,78.991662,0.078153,119.399433,3.280932,140.384232,1.532093
Bus564,83.030376,-0.021318,122.495022,3.308404,138.858309,1.530168
Bus565,98.645454,-0.284035,123.693655,3.413979,116.229054,1.489172
Bus566,104.428169,-0.331960,132.649383,3.436093,122.639442,1.500434
Bus567,82.849218,0.065967,110.732098,3.258589,139.343173,1.515132
Bus568,82.833207,0.066302,110.785849,3.258445,139.416600,1.515217
Bus569,82.851285,0.066346,109.523966,3.255799,139.422454,1.515092
Bus570,78.949641,0.116468,115.018606,3.261608,140.602273,1.526563
Bus571,83.008140,-0.020965,122.495220,3.308400,138.858744,1.530170
Bus572,98.626597,-0.283893,123.671107,3.413912,116.208972,1.489153
Bus573,82.853010,0.065888,110.719370,3.258624,139.325787,1.515111
Bus574,82.849218,0.065967,110.732098,3.258589,139.343173,1.515132
Bus575,82.853570,0.066352,109.364497,3.255460,139.423194,1.515076
Bus576,78.940030,0.116686,115.018723,3.261605,140.602506,1.526565
Bus577,82.988358,-0.020650,122.495395,3.308396,138.859131,1.530172
Bus578,98.529298,-0.283156,123.554741,3.413568,116.105320,1.489051
Bus579,82.956019,0.063745,110.374393,3.259555,138.854480,1.514559
Bus580,82.853010,0.065888,110.719370,3.258624,139.325787,1.515111
Bus581,82.853010,0.065888,110.719370,3.258624,139.325787,1.515111
Bus582,82.855257,0.066356,109.246828,3.255210,139.423740,1.515064
Bus583,78.928438,0.116949,115.018865,3.261603,140.602787,1.526566
Bus584,82.965598,-0.020288,122.495597,3.308392,138.859576,1.530174
Bus585,98.538349,-0.283099,122.811036,3.413137,116.108956,1.488965
Bus586,98.298057,-0.281697,123.359719,3.412888,115.872840,1.489037
Bus587,83.028435,0.062246,110.132685,3.260210,138.524206,1.514170
Bus588,82.956019,0.063745,110.374393,3.259555,138.854480,1.514559
Bus589,82.853010,0.065888,110.719370,3.258624,139.325787,1.515111
Bus590,82.856898,0.066360,109.132341,3.254965,139.424272,1.515053
Bus591,78.918265,0.117180,115.018989,3.261600,140.603034,1.526567
Bus592,82.942274,-0.019916,122.495804,3.308388,138.860033,1.530176
Bus593,98.538870,-0.283096,122.768179,3.413112,116.109166,1.488960
Bus594,97.195952,-0.274633,122.428563,3.409611,114.761888,1.488969
Bus595,83.310751,0.063000,109.494187,3.258761,138.620317,1.512202
Bus596,83.012188,0.061800,110.151006,3.260538,138.434324,1.514311
Bus597,82.853010,0.065888,110.719370,3.258624,139.325787,1.515111
Bus598,82.872312,0.066398,108.057216,3.252644,139.429265,1.514946
Bus599,78.851797,0.118695,115.019801,3.261585,140.604647,1.526575
Bus600,82.914253,-0.019469,122.496053,3.308383,138.860582,1.530179
Bus601,98.539132,-0.283094,122.746655,3.413100,116.109271,1.488958
Bus602,97.194505,-0.274935,122.444971,3.409810,112.727321,1.492011
Bus603,95.916697,-0.263995,121.223863,3.404286,113.907358,1.488514
Bus604,83.562556,0.063668,108.924980,3.257454,138.706480,1.510449
Bus605,83.310751,0.063000,109.494187,3.258761,138.620317,1.512202
Bus606,83.310751,0.063000,109.494187,3.258761,138.620317,1.512202
Bus607,82.998503,0.061438,110.166393,3.260803,136.182023,1.518259
Bus608,83.012188,0.061800,110.151006,3.260538,138.434324,1.514311
Bus609,82.853010,0.065888,110.719370,3.258624,139.325787,1.515111
Bus610,82.879486,0.066416,107.557045,3.251548,139.431590,1.514896
Bus611,78.367335,0.129943,115.025793,3.261472,140.616545,1.526632
Bus612,82.896694,-0.019189,122.496209,3.308380,138.860926,1.530181
Bus613,98.539352,-0.283093,122.728605,3.413089,116.109359,1.488956
Bus614,97.193745,-0.275094,122.453632,3.409916,111.654106,1.493661
Bus615,94.701841,-0.253538,120.073261,3.399085,113.088892,1.488072
Bus616,83.562556,0.063668,108.228605,3.256026,138.706480,1.510449
Bus617,83.562556,0.063668,108.924980,3.257454,138.706480,1.510449
Bus618,83.562556,0.063668,108.924980,3.257454,138.706480,1.510449
Bus619,82.995283,0.061353,110.170016,3.260865,135.652214,1.519208
Bus620,82.853010,0.065888,110.719370,3.258624,139.325787,1.515111
Bus621,82.882853,0.066424,107.322339,3.251030,139.432681,1.514873
Bus622,82.821307,-0.017982,122.496879,3.308367,138.862406,1.530188
Bus623,98.539531,-0.283092,122.713887,3.413081,116.109431,1.488954
Bus624,94.705023,-0.253519,119.816048,3.398890,113.090172,1.488041
Bus625,94.328628,-0.250755,119.834896,3.397721,112.844856,1.488266
Bus626,83.562556,0.063668,107.280342,3.254050,138.706480,1.510449
Bus627,82.853010,0.065888,110.719370,3.258624,139.325787,1.515111
Bus628,82.885099,0.066429,107.165803,3.250683,139.433409,1.514857
Bus629,82.504816,-0.012871,122.499707,3.308310,138.868642,1.530218
Bus630,98.539812,-0.283090,122.690783,3.413067,116.109544,1.488951
Bus631,94.705803,-0.253514,119.752979,3.398842,113.090486,1.488034
Bus632,94.242867,-0.250112,119.780087,3.397406,112.788711,1.488311
Bus633,83.562556,0.063668,107.002286,3.253464,138.706480,1.510449
Bus634,82.853010,0.065888,110.719370,3.258624,139.325787,1.515111
Bus635,82.888533,0.066438,106.926513,3.250151,139.434521,1.514833
Bus636,98.540483,-0.283086,122.635691,3.413035,116.109813,1.488945
Bus637,94.706339,-0.253510,119.709672,3.398809,113.090701,1.488029
Bus638,94.200323,-0.249792,119.752892,3.397250,112.760849,1.488333
Bus639,83.562556,0.063668,106.082239,3.251502,138.706480,1.510449
Bus640,82.853010,0.065888,110.719370,3.258624,139.325787,1.515111
Bus641,82.895238,0.066454,106.459271,3.249105,139.436695,1.514787
Bus642,98.540947,-0.283083,122.597576,3.413013,116.110000,1.488941
Bus643,94.707081,-0.253506,119.649638,3.398764,113.091000,1.488022
Bus644,94.153582,-0.249440,119.723011,3.397078,112.730232,1.488358
Bus645,82.853010,0.065888,110.719370,3.258624,139.325787,1.515111
Bus646,82.897092,0.066459,106.330133,3.248814,139.437296,1.514774
Bus647,98.541536,-0.283079,122.549113,3.412985,116.110237,1.488935
Bus648,94.708842,-0.253495,119.507283,3.398656,113.091708,1.488005
Bus649,94.099663,-0.249034,119.688537,3.396880,112.694904,1.488386
Bus650,82.853010,0.065888,110.719370,3.258624,139.325787,1.515111
Bus651,82.897630,0.066460,106.292644,3.248730,139.437470,1.514770
Bus652,98.541895,-0.283077,122.519673,3.412967,116.110381,1.488932
Bus653,94.710181,-0.253487,119.399070,3.398573,113.092247,1.487992
Bus654,94.045171,-0.248623,119.653691,3.396680,112.659189,1.488415
Bus655,82.853010,0.065888,110.719370,3.258624,139.325787,1.515111
Bus656,82.897866,0.066461,106.276226,3.248693,139.437547,1.514768
Bus657,82.898858,0.066463,106.207119,3.248537,139.437868,1.514761
Bus658,98.542218,-0.283075,122.493094,3.412952,116.110511,1.488929
Bus659,94.711120,-0.253481,119.323106,3.398515,113.092625,1.487983
Bus660,93.984778,-0.248167,119.615065,3.396457,112.619595,1.488446
Bus661,82.853010,0.065888,110.719370,3.258624,139.325787,1.515111
Bus662,82.898086,0.066461,106.260861,3.248658,139.437618,1.514767
Bus663,82.900478,0.066467,106.094268,3.248281,139.438393,1.514750
Bus664,98.542764,-0.283072,122.448269,3.412925,116.110730,1.488923
Bus665,94.712105,-0.253475,119.243529,3.398454,113.093021,1.487974
Bus666,93.896989,-0.247502,119.558905,3.396134,112.562018,1.488493
Bus667,82.853010,0.065888,110.719370,3.258624,139.325787,1.515111
Bus668,82.898313,0.066462,106.245032,3.248622,139.437692,1.514765
Bus669,82.907208,0.066484,105.625508,3.247216,139.440574,1.514704
Bus670,98.543300,-0.283068,122.404199,3.412900,116.110946,1.488918
Bus671,94.712913,-0.253470,119.178195,3.398404,113.093346,1.487966
Bus672,93.707318,-0.245719,119.559872,3.396105,112.564973,1.488511
Bus673,93.803557,-0.246866,119.381415,3.395913,112.335698,1.488190
Bus674,82.853010,0.065888,110.719370,3.258624,139.325787,1.515111
Bus675,82.899956,0.066466,106.130592,3.248363,139.438225,1.514754
Bus676,82.910067,0.066491,105.426473,3.246760,139.441500,1.514684
Bus677,98.543554,-0.283067,122.383348,3.412887,116.111048,1.488916
Bus678,94.714251,-0.253462,119.070021,3.398321,113.093885,1.487953
Bus679,93.593563,-0.244646,119.560453,3.396087,112.566747,1.488522
Bus680,93.212812,-0.242810,118.257644,3.394502,110.902832,1.486244
Bus681,82.853010,0.065888,110.719370,3.258624,139.325787,1.515111
Bus682,82.911920,0.066495,105.297444,3.246461,139.442105,1.514671
Bus683,98.543832,-0.283065,122.360445,3.412874,116.111160,1.488913
Bus684,94.718576,-0.253435,118.720439,3.398052,113.095625,1.487912
Bus685,93.488137,-0.243647,119.560992,3.396071,112.568394,1.488532
Bus686,92.790910,-0.239874,117.453398,3.393476,109.877453,1.484821
Bus687,98.544100,-0.283063,122.338464,3.412861,116.111267,1.488911
Bus688,94.728681,-0.253374,117.903634,3.397417,113.099692,1.487815
Bus689,93.385358,-0.242671,119.561518,3.396055,112.570000,1.488542
Bus690,92.787030,-0.240482,117.483459,3.393883,105.955711,1.490328
Bus691,91.662505,-0.220438,114.634110,3.383015,109.164795,1.479160
Bus692,98.544423,-0.283061,122.311955,3.412846,116.111397,1.488908
Bus693,93.308326,-0.241937,119.561912,3.396043,112.571204,1.488549
Bus694,92.786849,-0.240511,117.484877,3.393902,105.770788,1.490597
Bus695,92.786527,-0.240560,117.487352,3.393936,105.448681,1.491072
Bus696,91.681216,-0.220326,113.145138,3.381473,109.172607,1.478978
Bus697,91.372994,-0.216693,114.196567,3.381023,108.991582,1.478548
Bus698,98.544937,-0.283058,122.269669,3.412821,116.111604,1.488903
Bus699,93.186059,-0.240769,119.562539,3.396025,112.573118,1.488561
Bus700,92.786792,-0.240520,117.485320,3.393908,105.712927,1.490681
Bus701,92.785504,-0.240721,117.495284,3.394043,104.415964,1.492611
Bus702,91.692056,-0.220261,112.282663,3.380562,109.177134,1.478873
Bus703,90.884206,-0.209206,113.381414,3.377959,108.666305,1.477978
Bus704,98.546346,-0.283049,122.153939,3.412753,116.112170,1.488889
Bus705,92.980201,-0.238792,119.563595,3.395993,112.576345,1.488581
Bus706,92.786755,-0.240525,117.485606,3.393912,105.675723,1.490736
Bus707,89.619791,-0.189069,111.236418,3.369662,107.808450,1.476459
Bus708,90.884206,-0.209206,113.381414,3.377959,108.666305,1.477978
Bus709,98.548220,-0.283038,121.999924,3.412662,116.112923,1.488872
Bus710,91.449496,-0.223700,119.571515,3.395755,112.600525,1.488731
Bus711,92.786734,-0.240529,117.485778,3.393914,105.653284,1.490769
Bus712,89.497673,-0.179337,108.450776,3.366617,106.128826,1.470049
Bus713,88.659532,-0.178172,111.242033,3.369495,107.824341,1.476563
Bus714,90.884206,-0.209206,113.381414,3.377959,108.666305,1.477978
Bus715,98.548399,-0.283037,121.985255,3.412653,116.112995,1.488870
Bus716,90.209783,-0.210939,119.578018,3.395561,112.620363,1.488854
Bus717,92.786711,-0.240532,117.485952,3.393917,105.630604,1.490802
Bus718,89.380547,-0.169266,105.576799,3.363306,104.399992,1.463218
Bus719,88.557365,-0.176991,111.242635,3.369477,107.826042,1.476574
Bus720,90.884206,-0.209206,113.381414,3.377959,108.666305,1.477978
Bus721,98.548540,-0.283036,121.973654,3.412646,116.113051,1.488869
Bus722,89.820118,-0.206822,119.580079,3.395499,112.626649,1.488892
Bus723,92.786692,-0.240535,117.486107,3.393919,105.610346,1.490831
Bus724,89.008209,-0.166956,105.194456,3.363290,103.521982,1.463514
Bus725,89.422881,-0.169023,102.279384,3.358139,104.419095,1.462800
Bus726,88.518389,-0.176540,111.242864,3.369470,107.826692,1.476578
Bus727,90.884206,-0.209206,113.381414,3.377959,108.666305,1.477978
Bus728,98.548677,-0.283035,121.962386,3.412640,116.113107,1.488867
Bus729,89.466713,-0.203044,119.581956,3.395443,112.632371,1.488928
Bus730,92.786669,-0.240539,117.486282,3.393921,105.587522,1.490865
Bus731,88.503029,-0.163785,104.674911,3.363268,102.328918,1.463925
Bus732,89.428561,-0.168990,101.837274,3.357421,104.421659,1.462744
Bus733,88.477180,-0.176062,111.243107,3.369463,107.827379,1.476583
Bus734,90.884206,-0.209206,113.381414,3.377959,108.666305,1.477978
Bus735,98.548824,-0.283034,121.950317,3.412633,116.113166,1.488866
Bus736,89.274771,-0.200973,119.582978,3.395412,112.635488,1.488947
Bus737,92.786651,-0.240542,117.486422,3.393923,105.569236,1.490891
Bus738,87.912711,-0.160026,104.066629,3.363242,100.932103,1.464419
Bus739,89.431544,-0.168973,101.605022,3.357041,104.423007,1.462715
Bus740,88.442995,-0.175665,111.243309,3.369457,107.827949,1.476586
Bus741,90.884206,-0.209206,113.381414,3.377959,108.666305,1.477978
Bus742,98.548960,-0.283033,121.939158,3.412626,116.113220,1.488865
Bus743,89.121751,-0.199313,119.583795,3.395388,112.637977,1.488963
Bus744,92.786630,-0.240545,117.486590,3.393925,105.547302,1.490924
Bus745,87.439618,-0.156972,103.578203,3.363220,99.810535,1.464825
Bus746,89.439434,-0.168928,100.990986,3.356027,104.426569,1.462637
Bus747,89.431840,-0.168972,101.582046,3.357003,104.423140,1.462712
Bus748,88.402530,-0.175194,111.243548,3.369450,107.828625,1.476591
Bus749,90.884206,-0.209206,113.381414,3.377959,108.666305,1.477978
Bus750,98.549088,-0.283032,121.928642,3.412620,116.113272,1.488863
Bus751,88.991462,-0.197893,119.584491,3.395367,112.640100,1.488976
Bus752,92.786607,-0.240549,117.486771,3.393928,105.523665,1.490958
Bus753,87.298283,-0.152647,103.263403,3.360832,100.028294,1.464408
Bus754,87.433184,-0.157519,103.601889,3.363627,96.442129,1.468671
Bus755,89.445847,-0.168891,100.491929,3.355195,104.429466,1.462574
Bus756,89.432053,-0.168970,101.565432,3.356976,104.423236,1.462710
Bus757,88.363085,-0.174735,111.243780,3.369443,107.829283,1.476595
Bus758,90.884206,-0.209206,113.381414,3.377959,108.666305,1.477978
Bus759,98.549266,-0.283031,121.914017,3.412611,116.113343,1.488862
Bus760,88.838798,-0.196221,119.585308,3.395343,112.642591,1.488991
Bus761,92.786565,-0.240556,117.487102,3.393932,105.480542,1.491021
Bus762,87.106110,-0.146660,102.830360,3.357514,100.328550,1.463836
Bus763,87.427825,-0.157977,103.621701,3.363966,93.627750,1.472099
Bus764,89.432233,-0.168969,101.551411,3.356953,104.423317,1.462708
Bus765,88.308888,-0.174102,111.244100,3.369433,107.830189,1.476601
Bus766,90.884206,-0.209206,113.381414,3.377959,108.666305,1.477978
Bus767,98.549484,-0.283030,121.896094,3.412601,116.113431,1.488860
Bus768,88.699520,-0.194689,119.586055,3.395320,112.644867,1.489005
Bus769,92.786249,-0.240606,117.489576,3.393966,105.157925,1.491496
Bus770,86.646745,-0.131823,101.769945,3.349234,101.067326,1.462443
Bus771,87.426014,-0.158132,103.628431,3.364081,92.671662,1.473307
Bus772,87.427750,-0.157983,103.621979,3.363971,93.588267,1.472148
Bus773,89.432537,-0.168968,101.527728,3.356914,104.423455,1.462705
Bus774,88.234389,-0.173232,111.244541,3.369420,107.831434,1.476609
Bus775,90.884206,-0.209206,113.381414,3.377959,108.666305,1.477978
Bus776,98.550518,-0.283023,121.811144,3.412550,116.113846,1.488850
Bus777,88.483861,-0.192301,119.587214,3.395286,112.648398,1.489027
Bus778,92.785284,-0.240759,117.497157,3.394068,104.169418,1.492968
Bus779,86.288552,-0.119684,100.915681,3.342395,101.666257,1.461329
Bus780,87.424240,-0.158284,103.635028,3.364194,91.734931,1.474515
Bus781,87.427678,-0.157989,103.622245,3.363975,93.550517,1.472196
Bus782,89.432964,-0.168965,101.494563,3.356859,104.423647,1.462701
Bus783,88.155621,-0.172308,111.245007,3.369406,107.832753,1.476618
Bus784,90.884206,-0.209206,113.381414,3.377959,108.666305,1.477978
Bus785,98.559358,-0.282968,121.084813,3.412118,116.117400,1.488766
Bus786,88.050015,-0.187446,119.589554,3.395216,112.655528,1.489071
Bus787,86.017586,-0.110129,100.251518,3.336971,102.134330,1.460468
Bus788,87.427601,-0.157996,103.622532,3.363980,93.509820,1.472247
Bus789,89.433280,-0.168963,101.469954,3.356819,104.423790,1.462698
Bus790,88.103338,-0.171694,111.245316,3.369397,107.833628,1.476624
Bus791,90.884206,-0.209206,113.381414,3.377959,108.666305,1.477978
Bus792,87.963692,-0.186472,119.590021,3.395202,112.656951,1.489080
Bus793,87.794513,-0.184553,119.590937,3.395174,112.659743,1.489097
Bus794,85.779481,-0.101442,99.653814,3.332006,102.557443,1.459696
Bus795,87.427531,-0.158002,103.622788,3.363985,93.473481,1.472293
Bus796,89.433804,-0.168960,101.429188,3.356752,104.424026,1.462692
Bus797,88.050162,-0.171068,111.245631,3.369388,107.834519,1.476629
Bus798,90.884206,-0.209206,113.381414,3.377959,108.666305,1.477978
Bus799,87.888479,-0.185620,119.590428,3.395189,112.658191,1.489087
Bus800,87.387213,-0.179889,119.593152,3.395108,112.666488,1.489139
Bus801,85.730556,-0.100752,99.654162,3.331996,102.558330,1.459703
Bus802,85.896539,-0.100766,99.273389,3.330845,102.616689,1.458561
Bus803,87.427455,-0.158008,103.623071,3.363989,93.433351,1.472344
Bus804,89.437439,-0.168940,101.146247,3.356285,104.425668,1.462657
Bus805,88.024748,-0.170769,111.245782,3.369383,107.834946,1.476632
Bus806,90.884206,-0.209206,113.381414,3.377959,108.666305,1.477978
Bus807,87.826323,-0.184915,119.590765,3.395179,112.659217,1.489094
Bus808,87.040733,-0.175870,119.595044,3.395052,112.672250,1.489174
Bus809,85.681544,-0.100059,99.654511,3.331985,102.559219,1.459709
Bus810,86.196319,-0.099152,98.540802,3.329137,102.759716,1.455661
Bus811,85.896539,-0.100766,99.273389,3.330845,102.616689,1.458561
Bus812,87.427406,-0.158012,103.623253,3.363992,93.407478,1.472376
Bus813,89.445470,-0.168893,100.521344,3.355244,104.429294,1.462577
Bus814,87.984341,-0.170292,111.246022,3.369376,107.835623,1.476637
Bus815,90.884206,-0.209206,113.381414,3.377959,108.666305,1.477978
Bus816,87.778017,-0.184366,119.591027,3.395172,112.660015,1.489099
Bus817,86.845266,-0.173581,119.596115,3.395020,112.675512,1.489194
Bus818,85.632477,-0.099364,99.654861,3.331975,102.560110,1.459715
Bus819,86.447847,-0.097806,97.926778,3.327686,102.880303,1.453235
Bus820,86.196319,-0.099152,98.540802,3.329137,102.759716,1.455661
Bus821,87.427330,-0.158019,103.623533,3.363997,93.367739,1.472427
Bus822,87.946426,-0.169844,111.246247,3.369369,107.836260,1.476641
Bus823,90.884206,-0.209206,113.381414,3.377959,108.666305,1.477978
Bus824,87.728914,-0.183807,119.591293,3.395164,112.660827,1.489104
Bus825,85.583749,-0.098672,99.655209,3.331964,102.560996,1.459721
Bus826,86.718407,-0.096369,97.266950,3.326105,103.010605,1.450634
Bus827,86.447847,-0.097806,97.926778,3.327686,102.880303,1.453235
Bus828,87.426707,-0.158072,103.625837,3.364037,93.040884,1.472841
Bus829,87.892282,-0.169203,111.246568,3.369360,107.837169,1.476647
Bus830,90.884206,-0.209206,113.381414,3.377959,108.666305,1.477978
Bus831,87.686324,-0.183321,119.591524,3.395157,112.661531,1.489108
Bus832,85.534877,-0.097977,99.655558,3.331954,102.561885,1.459728
Bus833,86.940679,-0.095196,96.725392,3.324791,103.118108,1.448503
Bus834,86.718407,-0.096369,97.266950,3.326105,103.010605,1.450634
Bus835,87.424564,-0.158255,103.633778,3.364172,91.914520,1.474294
Bus836,87.322972,-0.162391,111.249962,3.369259,107.846766,1.476710
Bus837,87.655748,-0.182972,119.591691,3.395152,112.662037,1.489111
Bus838,85.486079,-0.097282,99.655907,3.331944,102.562773,1.459734
Bus839,87.179445,-0.093943,96.144157,3.323364,103.234043,1.446220
Bus840,86.940679,-0.095196,96.725392,3.324791,103.118108,1.448503
Bus841,87.096408,-0.159641,111.251320,3.369218,107.850605,1.476735
Bus842,87.620263,-0.182566,119.591883,3.395146,112.662625,1.489115
Bus843,85.437292,-0.096586,99.656256,3.331933,102.563662,1.459740
Bus844,87.179445,-0.093943,94.425485,3.319571,103.234043,1.446220
Bus845,87.179445,-0.093943,96.144157,3.323364,103.234043,1.446220
Bus846,87.179445,-0.093943,96.144157,3.323364,103.234043,1.446220
Bus847,86.981612,-0.158240,111.252009,3.369198,107.852555,1.476747
Bus848,87.566830,-0.181954,119.592174,3.395137,112.663509,1.489120
Bus849,85.413493,-0.096245,99.656426,3.331928,102.564096,1.459743
Bus850,87.179445,-0.093943,94.174155,3.319005,103.234043,1.446220
Bus851,87.179445,-0.093943,96.144157,3.323364,103.234043,1.446220
Bus852,87.179445,-0.093943,96.144157,3.323364,103.234043,1.446220
Bus853,86.956233,-0.157929,111.252162,3.369193,107.852986,1.476750
Bus854,87.479604,-0.180953,119.592648,3.395123,112.664955,1.489129
Bus855,84.881223,-0.088547,99.660256,3.331814,102.573847,1.459812
Bus856,87.179445,-0.093943,93.466264,3.317392,103.234043,1.446220
Bus857,87.179445,-0.093943,96.144157,3.323364,103.234043,1.446220
Bus858,87.179445,-0.093943,96.144157,3.323364,103.234043,1.446220
Bus859,86.936252,-0.157684,111.252282,3.369189,107.853326,1.476752
Bus860,87.132143,-0.176937,119.594545,3.395067,112.670726,1.489165
Bus861,86.548955,-0.170076,119.597742,3.394971,112.680476,1.489225
Bus862,84.537825,-0.083489,99.662747,3.331739,102.580189,1.459856
Bus863,87.179445,-0.093943,92.635339,3.315468,103.234043,1.446220
Bus864,87.179445,-0.093943,96.144157,3.323364,103.234043,1.446220
Bus865,87.179445,-0.093943,96.144157,3.323364,103.234043,1.446220
Bus866,86.914849,-0.157422,111.252411,3.369186,107.853690,1.476755
Bus867,84.239276,-0.079032,99.664927,3.331674,102.585736,1.459895
Bus868,87.179445,-0.093943,92.527575,3.315215,103.234043,1.446220
Bus869,87.179445,-0.093943,96.144157,3.323364,103.234043,1.446220
Bus870,87.179445,-0.093943,96.144157,3.323364,103.234043,1.446220
Bus871,86.897729,-0.157212,111.252514,3.369183,107.853981,1.476757
Bus872,83.927929,-0.074323,99.667213,3.331606,102.591554,1.459936
Bus873,87.179445,-0.093943,92.459844,3.315056,103.234043,1.446220
Bus874,87.179445,-0.093943,92.376920,3.314862,103.234043,1.446220
Bus875,87.179445,-0.093943,96.144157,3.323364,103.234043,1.446220
Bus876,87.179445,-0.093943,96.144157,3.323364,103.234043,1.446220
Bus877,86.881110,-0.157008,111.252614,3.369180,107.854264,1.476759
Bus878,83.400655,-0.066201,99.671119,3.331489,102.601489,1.460006
Bus879,87.179445,-0.093943,92.397173,3.314909,103.234043,1.446220
Bus880,87.179445,-0.093943,92.024391,3.314031,103.234043,1.446220
Bus881,87.179445,-0.093943,96.144157,3.323364,103.234043,1.446220
Bus882,87.179445,-0.093943,96.144157,3.323364,103.234043,1.446220
...
SourceBus_1,6538.346223,-0.024620,6562.944073,4.160008,6527.050809,2.064426
LOAD1,199.986513,-0.597980,215.057630,3.535446,215.543705,1.456017
LOAD2,186.051635,-0.570364,197.464166,3.529791,201.195495,1.459554
LOAD3,199.857184,-0.597815,215.058108,3.535438,215.545079,1.456023
LOAD4,155.649721,-0.506320,177.424406,3.508323,176.823912,1.476377
LOAD5,155.647907,-0.506316,177.424413,3.508323,176.823932,1.476377
LOAD6,186.052300,-0.570361,197.404223,3.529847,201.195702,1.459549
LOAD7,143.691370,-0.471197,159.767079,3.501124,160.025193,1.481915
LOAD8,143.599382,-0.472609,162.131484,3.499812,154.221470,1.488238
LOAD9,140.929427,-0.462872,161.521028,3.497467,159.745546,1.479973
LOAD10,143.628931,-0.469759,156.507017,3.499681,159.779448,1.478583
LOAD11,143.628835,-0.469759,156.515641,3.499677,159.779412,1.478584
LOAD12,143.599919,-0.472647,162.135165,3.499837,153.844507,1.488778
LOAD13,134.279386,-0.441089,150.292682,3.493466,150.382626,1.490041
LOAD14,131.739114,-0.432104,155.439269,3.490782,151.159483,1.493352
LOAD15,134.274275,-0.441118,150.744681,3.493281,150.380745,1.490082
LOAD16,134.276863,-0.444737,155.206409,3.493843,144.597220,1.496854
LOAD17,134.276037,-0.444664,155.199890,3.493794,145.280489,1.495840
LOAD18,99.996685,-0.274366,133.203843,3.407245,128.823263,1.519891
LOAD19,111.990348,-0.366661,141.230674,3.449979,130.192006,1.509940
LOAD20,101.300472,-0.293785,136.509061,3.423506,131.766701,1.512372
LOAD21,112.474935,-0.365088,143.036695,3.454403,135.780143,1.504063
LOAD22,100.867636,-0.290562,136.511166,3.423451,131.772997,1.512406
LOAD23,97.621798,-0.242351,128.397864,3.391555,132.928716,1.515264
LOAD24,107.197066,-0.347824,136.677650,3.442264,122.697992,1.511181
LOAD25,78.874739,0.080595,119.400713,3.280907,140.386903,1.532106
LOAD26,99.296369,-0.288648,122.821788,3.415330,116.907888,1.489638
LOAD27,105.448854,-0.340624,134.291679,3.440173,117.989135,1.510994
LOAD28,105.449232,-0.340752,134.299445,3.440255,117.054453,1.512428
LOAD29,78.407023,0.129006,115.025297,3.261481,140.615560,1.526627
LOAD30,78.991662,0.078153,119.399433,3.280932,140.384232,1.532093
LOAD31,78.367335,0.129943,115.025793,3.261472,140.616545,1.526632
LOAD32,97.193745,-0.275094,122.453632,3.409916,111.654106,1.493661
LOAD33,82.995283,0.061353,110.170016,3.260865,135.652214,1.519208
LOAD34,82.504816,-0.012871,122.499707,3.308310,138.868642,1.530218
LOAD35,83.562556,0.063668,106.082239,3.251502,138.706480,1.510449
LOAD36,82.910067,0.066491,105.426473,3.246760,139.441500,1.514684
LOAD37,82.911920,0.066495,105.297444,3.246461,139.442105,1.514671
LOAD38,94.728681,-0.253374,117.903634,3.397417,113.099692,1.487815
LOAD39,92.785504,-0.240721,117.495284,3.394043,104.415964,1.492611
LOAD40,91.692056,-0.220261,112.282663,3.380562,109.177134,1.478873
LOAD41,89.445847,-0.168891,100.491929,3.355195,104.429466,1.462574
LOAD42,92.785284,-0.240759,117.497157,3.394068,104.169418,1.492968
LOAD43,87.424240,-0.158284,103.635028,3.364194,91.734931,1.474515
LOAD44,98.559358,-0.282968,121.084813,3.412118,116.117400,1.488766
LOAD45,89.445470,-0.168893,100.521344,3.355244,104.429294,1.462577
LOAD46,86.845266,-0.173581,119.596115,3.395020,112.675512,1.489194
LOAD47,87.424564,-0.158255,103.633778,3.364172,91.914520,1.474294
LOAD48,87.132143,-0.176937,119.594545,3.395067,112.670726,1.489165
LOAD49,86.548955,-0.170076,119.597742,3.394971,112.680476,1.489225
LOAD50,87.179445,-0.093943,91.188344,3.312034,103.234043,1.446220
LOAD51,86.172257,-0.148192,111.256903,3.369052,107.866380,1.476838
LOAD52,82.358073,-0.050594,99.652210,3.332054,102.553346,1.459667
LOAD53,87.179445,-0.093943,90.861593,3.311233,103.234043,1.446220
LOAD54,85.423632,-0.138615,111.261473,3.368916,107.879321,1.476923
LOAD55,82.406579,-0.050362,99.678601,3.331266,102.620512,1.460140
